<?xml version="1.0" encoding="UTF-8"?>

<!-- generated on 2025-10-22 16:38:27.229849 by Eclipse SUMO osmWebWizard.py v1_24_0+1412-284a4f7aa5c
<configuration>
    <net-file value="/home/mojinn/sumo-src/sumo/tools/2025-10-22-16-38-20/osm.net.xml.gz"/>
    <output-trip-file value="/home/mojinn/sumo-src/sumo/tools/2025-10-22-16-38-20/osm.passenger.trips.xml"/>
    <route-file value="/home/mojinn/sumo-src/sumo/tools/2025-10-22-16-38-20/osm.passenger.rou.xml"/>
    <prefix value="veh"/>
    <trip-attributes value="departLane=&quot;best&quot;"/>
    <fringe-start-attributes value="departSpeed=&quot;max&quot;"/>
    <vehicle-class value="passenger"/>
    <lanes value="True"/>
    <fringe-factor value="5"/>
    <allow-fringe.min-length value="1000.0"/>
    <edge-permission value="passenger"/>
    <via-edge-types value="highway.motorway,highway.motorway_link,highway.trunk_link,highway.primary_link,highway.secondary_link,highway.tertiary_link"/>
    <min-distance value="300.0"/>
    <min-distance.fringe value="10.0"/>
    <remove-loops value="True"/>
    <insertion-density value="12.0"/>
</configuration>
-->

<routes xmlns:xsi="http://www.w3.org/2001/XMLSchema-instance" xsi:noNamespaceSchemaLocation="http://sumo.dlr.de/xsd/routes_file.xsd">
    <vType id="veh_passenger" vClass="passenger"/>
    <trip id="veh0" depart="0.00" from="656746656#1" to="-118685501#1" departLane="best" type="veh_passenger"/>
    <trip id="veh1" depart="13.34" from="-676191113#3" to="-658178872#0" departLane="best" type="veh_passenger" departSpeed="max"/>
    <trip id="veh2" depart="26.69" from="699674199#0" to="-303384176#0" departLane="best" type="veh_passenger"/>
    <trip id="veh3" depart="40.03" from="118685471" to="-118685574#1" departLane="best" type="veh_passenger"/>
    <trip id="veh4" depart="53.37" from="-658178872#0" to="350625627#3" departLane="best" type="veh_passenger"/>
    <trip id="veh5" depart="66.72" from="-118685501#1" to="-657565151" departLane="best" type="veh_passenger"/>
    <trip id="veh6" depart="80.06" from="693810751#0" to="-118685461#0" departLane="best" type="veh_passenger" departSpeed="max"/>
    <trip id="veh7" depart="93.41" from="-828030414#1" to="-372422255#1" departLane="best" type="veh_passenger" departSpeed="max"/>
    <trip id="veh8" depart="106.75" from="-350625627#2" to="-344735755#0" departLane="best" type="veh_passenger"/>
    <trip id="veh9" depart="120.09" from="-968341217" to="372310069#0" departLane="best" type="veh_passenger"/>
    <trip id="veh10" depart="133.44" from="693810751#0" to="657565156#3" departLane="best" type="veh_passenger" departSpeed="max"/>
    <trip id="veh11" depart="146.78" from="693811293#1" to="656746653#1" departLane="best" type="veh_passenger"/>
    <trip id="veh12" depart="160.12" from="-658193950#3" to="-694532578#0" departLane="best" type="veh_passenger"/>
    <trip id="veh13" depart="173.47" from="-676191113#3" to="699674199#1" departLane="best" type="veh_passenger" departSpeed="max"/>
    <trip id="veh14" depart="186.81" from="657565147#0" to="657565150#1" departLane="best" type="veh_passenger"/>
    <trip id="veh15" depart="200.15" from="-656746657" to="693810749#1-AddedOffRampEdge" departLane="best" type="veh_passenger" departSpeed="max"/>
    <trip id="veh16" depart="213.50" from="896437702" to="658193950#4" departLane="best" type="veh_passenger" departSpeed="max"/>
    <trip id="veh17" depart="226.84" from="350625627#2" to="676191113#3" departLane="best" type="veh_passenger"/>
    <trip id="veh18" depart="240.19" from="-658193950#3" to="-118685574#1" departLane="best" type="veh_passenger"/>
    <trip id="veh19" depart="253.53" from="-694532578#1" to="-675974310#1" departLane="best" type="veh_passenger"/>
    <trip id="veh20" depart="266.87" from="-657580974#0" to="828030412" departLane="best" type="veh_passenger"/>
    <trip id="veh21" depart="280.22" from="694532578#0" to="-828030413" departLane="best" type="veh_passenger"/>
    <trip id="veh22" depart="293.56" from="657565150#0" to="-981188047#0" departLane="best" type="veh_passenger"/>
    <trip id="veh23" depart="306.90" from="828030413" to="1279880656" departLane="best" type="veh_passenger" departSpeed="max"/>
    <trip id="veh24" depart="320.25" from="-676191113#3" to="-672374436" departLane="best" type="veh_passenger" departSpeed="max"/>
    <trip id="veh25" depart="333.59" from="350625627#4" to="-675974310#1" departLane="best" type="veh_passenger"/>
    <trip id="veh26" depart="346.93" from="118685380" to="-657580974#1" departLane="best" type="veh_passenger"/>
    <trip id="veh27" depart="360.28" from="968341217" to="350625971#0" departLane="best" type="veh_passenger"/>
    <trip id="veh28" depart="373.62" from="-350625627#1" to="-1298935482#1" departLane="best" type="veh_passenger"/>
    <trip id="veh29" depart="386.97" from="-303384171#2" to="-896437702" departLane="best" type="veh_passenger"/>
    <trip id="veh30" depart="400.31" from="968341217" to="372304670#8" departLane="best" type="veh_passenger"/>
    <trip id="veh31" depart="413.65" from="896418615" to="693811300" departLane="best" type="veh_passenger" departSpeed="max"/>
    <trip id="veh32" depart="427.00" from="-118685461#2" to="693810749#1" departLane="best" type="veh_passenger"/>
    <trip id="veh33" depart="440.34" from="658178872#0" to="372304670#8" departLane="best" type="veh_passenger"/>
    <trip id="veh34" depart="453.68" from="-372304670#4" to="118685486#2" departLane="best" type="veh_passenger"/>
    <trip id="veh35" depart="467.03" from="118685574#0" to="828030414#1" departLane="best" type="veh_passenger" departSpeed="max"/>
    <trip id="veh36" depart="480.37" from="694532578#0" to="-675974310#1" departLane="best" type="veh_passenger"/>
    <trip id="veh37" depart="493.71" from="303384171#0" to="-656746656#0" departLane="best" type="veh_passenger"/>
    <trip id="veh38" depart="507.06" from="828030413" to="693811300" departLane="best" type="veh_passenger" departSpeed="max"/>
    <trip id="veh39" depart="520.40" from="-118685369" to="-836974600#1" departLane="best" type="veh_passenger"/>
    <trip id="veh40" depart="533.75" from="-118685486#3" to="699674198" departLane="best" type="veh_passenger"/>
    <trip id="veh41" depart="547.09" from="694532578#1" to="693811299#1" departLane="best" type="veh_passenger"/>
    <trip id="veh42" depart="560.43" from="-694532577#2" to="-185742365#0" departLane="best" type="veh_passenger" departSpeed="max"/>
    <trip id="veh43" depart="573.78" from="694532578#1" to="828030414#1" departLane="best" type="veh_passenger"/>
    <trip id="veh44" depart="587.12" from="-344735755#4" to="303384176#1" departLane="best" type="veh_passenger"/>
    <trip id="veh45" depart="600.46" from="1307454892" to="372310069#0" departLane="best" type="veh_passenger" departSpeed="max"/>
    <trip id="veh46" depart="613.81" from="-676191113#3" to="693811300" departLane="best" type="veh_passenger" departSpeed="max"/>
    <trip id="veh47" depart="627.15" from="118685471" to="-657565156#3" departLane="best" type="veh_passenger"/>
    <trip id="veh48" depart="640.49" from="344735755#0" to="693810749#1-AddedOffRampEdge" departLane="best" type="veh_passenger" departSpeed="max"/>
    <trip id="veh49" depart="653.84" from="968341207" to="672362747#0" departLane="best" type="veh_passenger"/>
    <trip id="veh50" depart="667.18" from="118685486#3" to="372304670#2" departLane="best" type="veh_passenger"/>
    <trip id="veh51" depart="680.53" from="-372304670#8" to="-658178872#0" departLane="best" type="veh_passenger" departSpeed="max"/>
    <trip id="veh52" depart="693.87" from="-828030414#1" to="656746657" departLane="best" type="veh_passenger" departSpeed="max"/>
    <trip id="veh53" depart="707.21" from="-658193950#4" to="-657580974#1" departLane="best" type="veh_passenger"/>
    <trip id="veh54" depart="720.56" from="-303384173" to="658178872#1" departLane="best" type="veh_passenger"/>
    <trip id="veh55" depart="733.90" from="693811293#1" to="-303384171#3" departLane="best" type="veh_passenger"/>
    <trip id="veh56" depart="747.24" from="-658193952" to="676191113#0" departLane="best" type="veh_passenger"/>
    <trip id="veh57" depart="760.59" from="-657580974#1" to="-372304670#1" departLane="best" type="veh_passenger"/>
    <trip id="veh58" depart="773.93" from="1307454892" to="693811295" departLane="best" type="veh_passenger" departSpeed="max"/>
    <trip id="veh59" depart="787.27" from="-350625627#4" to="118685486#0" departLane="best" type="veh_passenger"/>
    <trip id="veh60" depart="800.62" from="118685471" to="1332821635#0" departLane="best" type="veh_passenger"/>
    <trip id="veh61" depart="813.96" from="675974310#0" to="676191113#2" departLane="best" type="veh_passenger" departSpeed="max"/>
    <trip id="veh62" depart="827.31" from="896437702" to="-344735755#0" departLane="best" type="veh_passenger" departSpeed="max"/>
    <trip id="veh63" depart="840.65" from="693811293#1" to="-675974308#0" departLane="best" type="veh_passenger"/>
    <trip id="veh64" depart="853.99" from="-657565150#1" to="118685574#2" departLane="best" type="veh_passenger"/>
    <trip id="veh65" depart="867.34" from="-675974308#2" to="699674198" departLane="best" type="veh_passenger"/>
    <trip id="veh66" depart="880.68" from="118685501#0" to="693811300" departLane="best" type="veh_passenger"/>
    <trip id="veh67" depart="894.02" from="344735755#4" to="-1332821635#1" departLane="best" type="veh_passenger"/>
    <trip id="veh68" depart="907.37" from="981188047#0" to="693811299#1" departLane="best" type="veh_passenger"/>
    <trip id="veh69" depart="920.71" from="896418615" to="699674198" departLane="best" type="veh_passenger" departSpeed="max"/>
    <trip id="veh70" depart="934.05" from="693810752#1" to="-656746653#1" departLane="best" type="veh_passenger"/>
    <trip id="veh71" depart="947.40" from="185742365#0" to="-657565156#3" departLane="best" type="veh_passenger" departSpeed="max"/>
    <trip id="veh72" depart="960.74" from="-676191113#3" to="693811295" departLane="best" type="veh_passenger" departSpeed="max"/>
    <trip id="veh73" depart="974.09" from="118685574#0" to="118685471" departLane="best" type="veh_passenger" departSpeed="max"/>
    <trip id="veh74" depart="987.43" from="896418615" to="656746656#1" departLane="best" type="veh_passenger" departSpeed="max"/>
    <trip id="veh75" depart="1000.77" from="344735755#1" to="693810752#1" departLane="best" type="veh_passenger"/>
    <trip id="veh76" depart="1014.12" from="303384171#2" to="693811300" departLane="best" type="veh_passenger"/>
    <trip id="veh77" depart="1027.46" from="-656746653#1" to="836974601#0" departLane="best" type="veh_passenger"/>
    <trip id="veh78" depart="1040.80" from="-344735755#1" to="-657565145#1" departLane="best" type="veh_passenger"/>
    <trip id="veh79" depart="1054.15" from="372310069#0" to="676191113#3" departLane="best" type="veh_passenger"/>
    <trip id="veh80" depart="1067.49" from="372310069#0" to="657565156#3" departLane="best" type="veh_passenger"/>
    <trip id="veh81" depart="1080.83" from="118685471" to="656746657" departLane="best" type="veh_passenger"/>
    <trip id="veh82" depart="1094.18" from="303384176#0" to="699674199#1" departLane="best" type="veh_passenger" departSpeed="max"/>
    <trip id="veh83" depart="1107.52" from="-657565156#2" to="693810749#1" departLane="best" type="veh_passenger"/>
    <trip id="veh84" depart="1120.87" from="-694532578#1" to="693811293#0" departLane="best" type="veh_passenger"/>
    <trip id="veh85" depart="1134.21" from="-303384173" to="-657565156#3" departLane="best" type="veh_passenger"/>
    <trip id="veh86" depart="1147.55" from="-676191113#3" to="699674199#0" departLane="best" type="veh_passenger" departSpeed="max"/>
    <trip id="veh87" depart="1160.90" from="657565154" to="699674199#3" departLane="best" type="veh_passenger"/>
    <trip id="veh88" depart="1174.24" from="-372304671#1" to="-350625627#0" departLane="best" type="veh_passenger"/>
    <trip id="veh89" depart="1187.58" from="-372304670#1" to="372310069#0" departLane="best" type="veh_passenger"/>
    <trip id="veh90" depart="1200.93" from="675974308#4" to="-657565154" departLane="best" type="veh_passenger"/>
    <trip id="veh91" depart="1214.27" from="185742365#0" to="694532577#1" departLane="best" type="veh_passenger" departSpeed="max"/>
    <trip id="veh92" depart="1227.61" from="693810752#1" to="-303384176#2" departLane="best" type="veh_passenger"/>
    <trip id="veh93" depart="1240.96" from="118685471" to="-676191113#2" departLane="best" type="veh_passenger"/>
    <trip id="veh94" depart="1254.30" from="-118685380" to="693811295" departLane="best" type="veh_passenger"/>
    <trip id="veh95" depart="1267.65" from="676191113#2" to="372310069#0" departLane="best" type="veh_passenger"/>
    <trip id="veh96" depart="1280.99" from="-303384176#1" to="693811300" departLane="best" type="veh_passenger"/>
    <trip id="veh97" depart="1294.33" from="828030413" to="372310068#1" departLane="best" type="veh_passenger" departSpeed="max"/>
    <trip id="veh98" depart="1307.68" from="693810752#0" to="656746657" departLane="best" type="veh_passenger"/>
    <trip id="veh99" depart="1321.02" from="-372422255#2" to="-350625971#1" departLane="best" type="veh_passenger"/>
    <trip id="veh100" depart="1334.36" from="-694532577#2" to="694531098#1" departLane="best" type="veh_passenger" departSpeed="max"/>
    <trip id="veh101" depart="1347.71" from="-675974308#2" to="-344735755#0" departLane="best" type="veh_passenger"/>
    <trip id="veh102" depart="1361.05" from="693810749#1" to="693811300" departLane="best" type="veh_passenger"/>
    <trip id="veh103" depart="1374.39" from="-118685501#0" to="693810752#0" departLane="best" type="veh_passenger"/>
    <trip id="veh104" depart="1387.74" from="-828030414#0" to="699674198" departLane="best" type="veh_passenger"/>
    <trip id="veh105" depart="1401.08" from="693810751#0" to="-675974310#1" departLane="best" type="veh_passenger" departSpeed="max"/>
    <trip id="veh106" depart="1414.43" from="693810749#1-AddedOffRampEdge" to="-344735755#2" departLane="best" type="veh_passenger"/>
    <trip id="veh107" depart="1427.77" from="694532577#0" to="693811300" departLane="best" type="veh_passenger"/>
    <trip id="veh108" depart="1441.11" from="-658193950#1" to="693811299#1" departLane="best" type="veh_passenger"/>
    <trip id="veh109" depart="1454.46" from="118685574#0" to="-828030412" departLane="best" type="veh_passenger" departSpeed="max"/>
    <trip id="veh110" depart="1467.80" from="693810751#0" to="-658193950#1" departLane="best" type="veh_passenger" departSpeed="max"/>
    <trip id="veh111" depart="1481.14" from="-699674198" to="693811300" departLane="best" type="veh_passenger" departSpeed="max"/>
    <trip id="veh112" depart="1494.49" from="896437702" to="372304670#8" departLane="best" type="veh_passenger" departSpeed="max"/>
    <trip id="veh113" depart="1507.83" from="837680001" to="-350625627#0" departLane="best" type="veh_passenger" departSpeed="max"/>
    <trip id="veh114" depart="1521.17" from="896418615" to="-656746656#0" departLane="best" type="veh_passenger" departSpeed="max"/>
    <trip id="veh115" depart="1534.52" from="-372304670#1" to="118685486#2" departLane="best" type="veh_passenger"/>
    <trip id="veh116" depart="1547.86" from="675974310#0" to="-828030413" departLane="best" type="veh_passenger" departSpeed="max"/>
    <trip id="veh117" depart="1561.21" from="372422252" to="350625971#1" departLane="best" type="veh_passenger"/>
    <trip id="veh118" depart="1574.55" from="-675974308#4" to="693808604#1" departLane="best" type="veh_passenger"/>
    <trip id="veh119" depart="1587.89" from="-118685369" to="699674198" departLane="best" type="veh_passenger"/>
    <trip id="veh120" depart="1601.24" from="344735755#0" to="693810749#1" departLane="best" type="veh_passenger" departSpeed="max"/>
    <trip id="veh121" depart="1614.58" from="657565154" to="-836974622" departLane="best" type="veh_passenger"/>
    <trip id="veh122" depart="1627.92" from="-694532578#0" to="693811300" departLane="best" type="veh_passenger"/>
    <trip id="veh123" depart="1641.27" from="-694532577#2" to="118685407#0" departLane="best" type="veh_passenger" departSpeed="max"/>
    <trip id="veh124" depart="1654.61" from="-694532577#2" to="372310068#1" departLane="best" type="veh_passenger" departSpeed="max"/>
    <trip id="veh125" depart="1667.95" from="118685471" to="656746656#1" departLane="best" type="veh_passenger"/>
    <trip id="veh126" depart="1681.30" from="657565147#2" to="1298935482#1" departLane="best" type="veh_passenger"/>
    <trip id="veh127" depart="1694.64" from="118685501#0" to="-657565156#3" departLane="best" type="veh_passenger"/>
    <trip id="veh128" depart="1707.99" from="1307454892" to="694531098#4" departLane="best" type="veh_passenger" departSpeed="max"/>
    <trip id="veh129" depart="1721.33" from="693810751#0" to="-656746656#0" departLane="best" type="veh_passenger" departSpeed="max"/>
    <trip id="veh130" depart="1734.67" from="-344735755#3" to="372304670#1" departLane="best" type="veh_passenger"/>
    <trip id="veh131" depart="1748.02" from="656746656#0" to="-837680001" departLane="best" type="veh_passenger" departSpeed="max"/>
    <trip id="veh132" depart="1761.36" from="657565158" to="-658178872#0" departLane="best" type="veh_passenger"/>
    <trip id="veh133" depart="1774.70" from="-657565156#0" to="-118685501#1" departLane="best" type="veh_passenger"/>
    <trip id="veh134" depart="1788.05" from="693811293#0" to="-303384171#4" departLane="best" type="veh_passenger"/>
    <trip id="veh135" depart="1801.39" from="118685461#2" to="658178872#0" departLane="best" type="veh_passenger"/>
    <trip id="veh136" depart="1814.73" from="-657565153" to="693808604#1" departLane="best" type="veh_passenger"/>
    <trip id="veh137" depart="1828.08" from="185742365#0" to="-672362747#0" departLane="best" type="veh_passenger" departSpeed="max"/>
    <trip id="veh138" depart="1841.42" from="657565150#0" to="-118685461#0" departLane="best" type="veh_passenger"/>
    <trip id="veh139" depart="1854.77" from="-372304670#1" to="118685471" departLane="best" type="veh_passenger"/>
    <trip id="veh140" depart="1868.11" from="-657565145#0" to="836974600#0" departLane="best" type="veh_passenger"/>
    <trip id="veh141" depart="1881.45" from="-675974308#2" to="693811300" departLane="best" type="veh_passenger"/>
    <trip id="veh142" depart="1894.80" from="118685574#0" to="693811295" departLane="best" type="veh_passenger" departSpeed="max"/>
    <trip id="veh143" depart="1908.14" from="372310069#0" to="828030414#1" departLane="best" type="veh_passenger"/>
    <trip id="veh144" depart="1921.48" from="699674199#0" to="657565154" departLane="best" type="veh_passenger"/>
    <trip id="veh145" depart="1934.83" from="699674199#2" to="693810752#1" departLane="best" type="veh_passenger"/>
    <trip id="veh146" depart="1948.17" from="1307454892" to="-675974308#5" departLane="best" type="veh_passenger" departSpeed="max"/>
    <trip id="veh147" depart="1961.51" from="656746656#0" to="-676191113#1" departLane="best" type="veh_passenger" departSpeed="max"/>
    <trip id="veh148" depart="1974.86" from="344735755#0" to="-372304670#5" departLane="best" type="veh_passenger" departSpeed="max"/>
    <trip id="veh149" depart="1988.20" from="-658193950#4" to="676195250#3" departLane="best" type="veh_passenger"/>
    <trip id="veh150" depart="2001.55" from="672374436" to="-185742365#1" departLane="best" type="veh_passenger"/>
    <trip id="veh151" depart="2014.89" from="118685471" to="694532577#1" departLane="best" type="veh_passenger"/>
    <trip id="veh152" depart="2028.23" from="372304671#1" to="693808604#1" departLane="best" type="veh_passenger"/>
    <trip id="veh153" depart="2041.58" from="-968341217" to="-118685461#0" departLane="best" type="veh_passenger"/>
    <trip id="veh154" depart="2054.92" from="-836974600#1" to="693811293#0" departLane="best" type="veh_passenger"/>
    <trip id="veh155" depart="2068.26" from="693811293#0" to="828030414#1" departLane="best" type="veh_passenger"/>
    <trip id="veh156" depart="2081.61" from="-658178872#1" to="-657580974#1" departLane="best" type="veh_passenger"/>
    <trip id="veh157" depart="2094.95" from="1298935482#1" to="-350625971#1" departLane="best" type="veh_passenger"/>
    <trip id="veh158" depart="2108.29" from="656746653#0" to="-118685501#2" departLane="best" type="veh_passenger"/>
    <trip id="veh159" depart="2121.64" from="-118685501#1" to="658193950#5" departLane="best" type="veh_passenger"/>
    <trip id="veh160" depart="2134.98" from="-657580974#0" to="-836974601#0" departLane="best" type="veh_passenger"/>
    <trip id="veh161" depart="2148.33" from="-675974308#3" to="-303384176#0" departLane="best" type="veh_passenger"/>
    <trip id="veh162" depart="2161.67" from="-118685486#3" to="372304671#1" departLane="best" type="veh_passenger"/>
    <trip id="veh163" depart="2175.01" from="-118685486#3" to="-372422252" departLane="best" type="veh_passenger"/>
    <trip id="veh164" depart="2188.36" from="-372304670#8" to="676191113#0" departLane="best" type="veh_passenger" departSpeed="max"/>
    <trip id="veh165" depart="2201.70" from="658193950#6" to="693811295" departLane="best" type="veh_passenger"/>
    <trip id="veh166" depart="2215.04" from="-656746657" to="657565150#1" departLane="best" type="veh_passenger" departSpeed="max"/>
    <trip id="veh167" depart="2228.39" from="693810751#0" to="836974601#1" departLane="best" type="veh_passenger" departSpeed="max"/>
    <trip id="veh168" depart="2241.73" from="-372304670#1" to="-118685501#1" departLane="best" type="veh_passenger"/>
    <trip id="veh169" depart="2255.07" from="658193950#3" to="657580976" departLane="best" type="veh_passenger"/>
    <trip id="veh170" depart="2268.42" from="-372304670#8" to="968341207" departLane="best" type="veh_passenger" departSpeed="max"/>
    <trip id="veh171" depart="2281.76" from="118685471" to="-896418615" departLane="best" type="veh_passenger"/>
    <trip id="veh172" depart="2295.11" from="303384171#4" to="-837680001" departLane="best" type="veh_passenger"/>
    <trip id="veh173" depart="2308.45" from="-372304670#0" to="836974601#0" departLane="best" type="veh_passenger"/>
    <trip id="veh174" depart="2321.79" from="656746656#0" to="693811299#1" departLane="best" type="veh_passenger" departSpeed="max"/>
    <trip id="veh175" depart="2335.14" from="-676191113#3" to="693811299#1" departLane="best" type="veh_passenger" departSpeed="max"/>
    <trip id="veh176" depart="2348.48" from="118685486#2" to="693810749#1-AddedOffRampEdge" departLane="best" type="veh_passenger"/>
    <trip id="veh177" depart="2361.82" from="-676191113#3" to="693811300" departLane="best" type="veh_passenger" departSpeed="max"/>
    <trip id="veh178" depart="2375.17" from="693810752#0" to="-303384176#0" departLane="best" type="veh_passenger"/>
    <trip id="veh179" depart="2388.51" from="1298935482#0" to="657565151" departLane="best" type="veh_passenger"/>
    <trip id="veh180" depart="2401.85" from="-968341217" to="-118685574#1" departLane="best" type="veh_passenger"/>
    <trip id="veh181" depart="2415.20" from="-828030414#1" to="693811300" departLane="best" type="veh_passenger" departSpeed="max"/>
    <trip id="veh182" depart="2428.54" from="658193952" to="-676191113#2" departLane="best" type="veh_passenger"/>
    <trip id="veh183" depart="2441.89" from="-118685461#2" to="828030414#1" departLane="best" type="veh_passenger"/>
    <trip id="veh184" depart="2455.23" from="185742365#0" to="693811293#1" departLane="best" type="veh_passenger" departSpeed="max"/>
    <trip id="veh185" depart="2468.57" from="185742365#0" to="693811295" departLane="best" type="veh_passenger" departSpeed="max"/>
    <trip id="veh186" depart="2481.92" from="-350625627#2" to="-657580976" departLane="best" type="veh_passenger"/>
    <trip id="veh187" depart="2495.26" from="372304670#6" to="303384171#0" departLane="best" type="veh_passenger"/>
    <trip id="veh188" depart="2508.60" from="344735755#0" to="118685471" departLane="best" type="veh_passenger" departSpeed="max"/>
    <trip id="veh189" depart="2521.95" from="676195250#1" to="-836974622" departLane="best" type="veh_passenger"/>
    <trip id="veh190" depart="2535.29" from="-657565151" to="-350625627#2" departLane="best" type="veh_passenger"/>
    <trip id="veh191" depart="2548.63" from="344735755#0" to="693811293#1" departLane="best" type="veh_passenger" departSpeed="max"/>
    <trip id="veh192" depart="2561.98" from="1332821635#1" to="693810749#1-AddedOffRampEdge" departLane="best" type="veh_passenger"/>
    <trip id="veh193" depart="2575.32" from="896418615" to="372304670#6" departLane="best" type="veh_passenger" departSpeed="max"/>
    <trip id="veh194" depart="2588.67" from="-676195250#2" to="-344735755#0" departLane="best" type="veh_passenger"/>
    <trip id="veh195" depart="2602.01" from="-657565145#1" to="-118685486#1" departLane="best" type="veh_passenger"/>
    <trip id="veh196" depart="2615.35" from="896418615" to="372310069#0" departLane="best" type="veh_passenger" departSpeed="max"/>
    <trip id="veh197" depart="2628.70" from="658193950#6" to="-350625971#0" departLane="best" type="veh_passenger"/>
    <trip id="veh198" depart="2642.04" from="694532577#1" to="656746652" departLane="best" type="veh_passenger"/>
    <trip id="veh199" depart="2655.38" from="1307454892" to="118685486#4" departLane="best" type="veh_passenger" departSpeed="max"/>
    <trip id="veh200" depart="2668.73" from="-657565147#1" to="-1332821635#1" departLane="best" type="veh_passenger"/>
    <trip id="veh201" depart="2682.07" from="837680001" to="303384171#3" departLane="best" type="veh_passenger" departSpeed="max"/>
    <trip id="veh202" depart="2695.41" from="693810751#0" to="118685380" departLane="best" type="veh_passenger" departSpeed="max"/>
    <trip id="veh203" depart="2708.76" from="-303384176#1" to="658178872#0" departLane="best" type="veh_passenger"/>
    <trip id="veh204" depart="2722.10" from="-1332821635#0" to="-372422251#2" departLane="best" type="veh_passenger"/>
    <trip id="veh205" depart="2735.45" from="350625971#0" to="-828030412" departLane="best" type="veh_passenger"/>
    <trip id="veh206" depart="2748.79" from="968341207" to="-350625627#2" departLane="best" type="veh_passenger"/>
    <trip id="veh207" depart="2762.13" from="693810749#1-AddedOffRampEdge" to="-658178872#1" departLane="best" type="veh_passenger"/>
    <trip id="veh208" depart="2775.48" from="118685501#0" to="693811300" departLane="best" type="veh_passenger"/>
    <trip id="veh209" depart="2788.82" from="656746652" to="657565151" departLane="best" type="veh_passenger"/>
    <trip id="veh210" depart="2802.16" from="372310069#0" to="-694532578#1" departLane="best" type="veh_passenger"/>
    <trip id="veh211" depart="2815.51" from="-658193950#4" to="693808604#1" departLane="best" type="veh_passenger"/>
    <trip id="veh212" depart="2828.85" from="672362747#0" to="118685574#2" departLane="best" type="veh_passenger"/>
    <trip id="veh213" depart="2842.19" from="658193950#1" to="699674198" departLane="best" type="veh_passenger"/>
    <trip id="veh214" depart="2855.54" from="657565151" to="699674199#0" departLane="best" type="veh_passenger"/>
    <trip id="veh215" depart="2868.88" from="657565145#1" to="694532577#2" departLane="best" type="veh_passenger"/>
    <trip id="veh216" depart="2882.23" from="693810751#0" to="-303384171#3" departLane="best" type="veh_passenger" departSpeed="max"/>
    <trip id="veh217" depart="2895.57" from="-656746657" to="-828030413" departLane="best" type="veh_passenger" departSpeed="max"/>
    <trip id="veh218" depart="2908.91" from="676195250#2" to="372422255#3" departLane="best" type="veh_passenger"/>
    <trip id="veh219" depart="2922.26" from="-676195250#3" to="-350625627#4" departLane="best" type="veh_passenger" departSpeed="max"/>
    <trip id="veh220" depart="2935.60" from="658193950#2" to="693808604#1" departLane="best" type="veh_passenger"/>
    <trip id="veh221" depart="2948.94" from="837680001" to="350625627#1" departLane="best" type="veh_passenger" departSpeed="max"/>
    <trip id="veh222" depart="2962.29" from="185742365#0" to="-303384176#0" departLane="best" type="veh_passenger" departSpeed="max"/>
    <trip id="veh223" depart="2975.63" from="-699674198" to="-675974308#1" departLane="best" type="veh_passenger" departSpeed="max"/>
    <trip id="veh224" depart="2988.97" from="-350625627#1" to="836974601#0" departLane="best" type="veh_passenger"/>
    <trip id="veh225" depart="3002.32" from="693810752#0" to="656746653#0" departLane="best" type="veh_passenger"/>
    <trip id="veh226" depart="3015.66" from="657565158" to="-675974310#1" departLane="best" type="veh_passenger"/>
    <trip id="veh227" depart="3029.01" from="-118685574#2" to="693811293#0" departLane="best" type="veh_passenger" departSpeed="max"/>
    <trip id="veh228" depart="3042.35" from="1307454892" to="672374436" departLane="best" type="veh_passenger" departSpeed="max"/>
    <trip id="veh229" depart="3055.69" from="828030415" to="-657565144" departLane="best" type="veh_passenger"/>
    <trip id="veh230" depart="3069.04" from="372304671#1" to="658193950#1" departLane="best" type="veh_passenger"/>
    <trip id="veh231" depart="3082.38" from="185742365#0" to="-303384176#1" departLane="best" type="veh_passenger" departSpeed="max"/>
    <trip id="veh232" depart="3095.72" from="-836974600#0" to="-836974623" departLane="best" type="veh_passenger"/>
    <trip id="veh233" depart="3109.07" from="657565156#3" to="693811300" departLane="best" type="veh_passenger"/>
    <trip id="veh234" depart="3122.41" from="-828030412" to="676195250#3" departLane="best" type="veh_passenger"/>
    <trip id="veh235" depart="3135.75" from="-676195250#3" to="828030414#1" departLane="best" type="veh_passenger" departSpeed="max"/>